Version 4
SHEET 1 880 680
WIRE 176 -16 -176 -16
WIRE 272 -16 176 -16
WIRE 480 -16 368 -16
WIRE 176 32 176 -16
WIRE 480 32 480 -16
WIRE -176 96 -176 -16
WIRE 176 144 176 112
WIRE 288 144 288 32
WIRE 288 144 176 144
WIRE 480 144 480 112
WIRE 288 176 288 144
WIRE 480 176 480 144
WIRE -176 208 -176 176
WIRE 96 224 -32 224
WIRE 224 224 176 224
WIRE -32 256 -32 224
WIRE 288 352 288 272
WIRE 480 352 480 256
WIRE -32 368 -32 336
FLAG -176 208 0
FLAG 288 352 0
FLAG -32 368 0
FLAG 480 352 0
FLAG 480 -16 Vout
FLAG 480 144 Vbatt
SYMBOL voltage -176 80 R0
WINDOW 123 0 0 Left 0
WINDOW 39 0 0 Left 0
SYMATTR InstName V1
SYMATTR Value 3.6
SYMBOL pmos 368 32 M270
SYMATTR InstName M1
SYMATTR Value BSS84
SYMBOL npn 224 176 R0
SYMATTR InstName Q1
SYMATTR Value 2N3904
SYMBOL res 160 16 R0
SYMATTR InstName R1
SYMATTR Value 10k
SYMBOL res 192 208 R90
WINDOW 0 0 56 VBottom 2
WINDOW 3 32 56 VTop 2
SYMATTR InstName R2
SYMATTR Value 10k
SYMBOL res 464 16 R0
SYMATTR InstName R3
SYMATTR Value 10k
SYMBOL res 464 160 R0
SYMATTR InstName R4
SYMATTR Value 10k
SYMBOL voltage -32 240 R0
WINDOW 123 0 0 Left 0
WINDOW 39 0 0 Left 0
SYMATTR InstName V2
SYMATTR Value 3.6
TEXT -210 392 Left 2 !.tran 0 1 0
