Version 4
SHEET 1 880 680
SYMBOL pmos 128 112 R0
SYMATTR InstName M1
SYMATTR Value FDS4465
